<?xml version="1.0" encoding="UTF-8"?>

<!-- generated on 2025-12-13T22:30:12.205466+08:00 by Eclipse SUMO sumo 1.25.0
-->

<sumoConfiguration xmlns:xsi="http://www.w3.org/2001/XMLSchema-instance" xsi:noNamespaceSchemaLocation="http://sumo.dlr.de/xsd/sumoConfiguration.xsd">

    <input>
        <net-file value="net.net.xml"/>
        <route-files value="generated_vehicles.rou.xml"/>
	<additional-files value="accident_config.add.xml"/>
    </input>

</sumoConfiguration>
