<?xml version="1.0" encoding="UTF-8"?>

<!-- generated on 2025-12-13T21:53:16.166701+08:00 by Eclipse SUMO netedit 1.25.0
<neteditConfiguration xmlns:xsi="http://www.w3.org/2001/XMLSchema-instance" xsi:noNamespaceSchemaLocation="http://sumo.dlr.de/xsd/neteditConfiguration.xsd">

    <input>
        <sumo-net-file value="D:\SUMO\sumo_kaiwu\net.net.xml"/>
    </input>

    <output>
        <output-file value="D:\SUMO\sumo_kaiwu\net.net.xml"/>
    </output>

    <processing>
        <geometry.min-radius.fix.railways value="false"/>
        <geometry.avoid-overlap value="false"/>
        <geometry.max-grade.fix value="false"/>
        <offset.disable-normalization value="true"/>
        <lefthand value="0"/>
    </processing>

    <junctions>
        <no-turnarounds value="true"/>
        <junctions.corner-detail value="5"/>
        <junctions.limit-turn-speed value="5.50"/>
        <rectangular-lane-cut value="0"/>
    </junctions>

    <pedestrian>
        <walkingareas value="0"/>
    </pedestrian>

</neteditConfiguration>
-->

<net version="1.20" junctionCornerDetail="5" limitTurnSpeed="5.50" avoidOverlap="0" xmlns:xsi="http://www.w3.org/2001/XMLSchema-instance" xsi:noNamespaceSchemaLocation="http://sumo.dlr.de/xsd/net_file.xsd">

    <location netOffset="0.00,0.00" convBoundary="-150.00,-150.00,150.00,150.00" origBoundary="-10000000000.00,-10000000000.00,10000000000.00,10000000000.00" projParameter="!"/>

    <edge id=":J0_0" function="internal">
        <lane id=":J0_0_0" index="0" speed="8.10" length="14.57" shape="-14.40,16.80 -14.75,11.55 -15.80,7.80 -17.55,5.55 -20.00,4.80"/>
    </edge>
    <edge id=":J0_1" function="internal">
        <lane id=":J0_1_0" index="0" speed="13.89" length="33.60" shape="-11.20,16.80 -11.20,-16.80"/>
        <lane id=":J0_1_1" index="1" speed="13.89" length="33.60" shape="-8.00,16.80 -8.00,-16.80"/>
        <lane id=":J0_1_2" index="2" speed="13.89" length="33.60" shape="-4.80,16.80 -4.80,-16.80"/>
    </edge>
    <edge id=":J0_4" function="internal">
        <lane id=":J0_4_0" index="0" speed="12.28" length="14.39" shape="-1.60,16.80 -0.25,7.35 2.24,3.20"/>
        <lane id=":J0_4_1" index="1" speed="11.84" length="12.47" shape="-1.60,16.80 -0.25,8.75 2.23,5.23"/>
    </edge>
    <edge id=":J0_21" function="internal">
        <lane id=":J0_21_0" index="0" speed="12.28" length="20.45" shape="2.24,3.20 3.80,0.60 10.55,-3.45 20.00,-4.80"/>
        <lane id=":J0_21_1" index="0" speed="11.84" length="19.83" shape="2.23,5.23 3.80,3.00 10.55,-0.45 20.00,-1.60"/>
    </edge>
    <edge id=":J0_6" function="internal">
        <lane id=":J0_6_0" index="0" speed="8.10" length="14.57" shape="20.00,11.20 14.75,11.55 11.00,12.60 8.75,14.35 8.00,16.80"/>
        <lane id=":J0_6_1" index="1" speed="8.83" length="17.50" shape="20.00,11.20 13.35,11.55 8.60,12.60 5.75,14.35 4.80,16.80"/>
    </edge>
    <edge id=":J0_8" function="internal">
        <lane id=":J0_8_0" index="0" speed="13.89" length="40.13" shape="20.00,8.00 -20.00,4.80"/>
        <lane id=":J0_8_1" index="1" speed="13.89" length="40.13" shape="20.00,4.80 -20.00,1.60"/>
    </edge>
    <edge id=":J0_10" function="internal">
        <lane id=":J0_10_0" index="0" speed="11.84" length="32.30" shape="20.00,1.60 10.55,0.45 3.80,-3.00 -0.25,-8.75 -1.60,-16.80"/>
    </edge>
    <edge id=":J0_11" function="internal">
        <lane id=":J0_11_0" index="0" speed="7.33" length="11.73" shape="14.40,-16.80 14.75,-12.95 15.80,-10.20 17.55,-8.55 20.00,-8.00"/>
        <lane id=":J0_11_1" index="1" speed="8.10" length="14.57" shape="14.40,-16.80 14.75,-11.55 15.80,-7.80 17.55,-5.55 20.00,-4.80"/>
        <lane id=":J0_11_2" index="2" speed="8.83" length="17.50" shape="14.40,-16.80 14.75,-10.15 15.80,-5.40 17.55,-2.55 20.00,-1.60"/>
    </edge>
    <edge id=":J0_14" function="internal">
        <lane id=":J0_14_0" index="0" speed="13.89" length="33.60" shape="11.20,-16.80 11.20,16.80"/>
        <lane id=":J0_14_1" index="1" speed="13.89" length="33.60" shape="8.00,-16.80 8.00,16.80"/>
        <lane id=":J0_14_2" index="2" speed="13.89" length="33.60" shape="4.80,-16.80 4.80,16.80"/>
    </edge>
    <edge id=":J0_17" function="internal">
        <lane id=":J0_17_0" index="0" speed="11.84" length="12.47" shape="1.60,-16.80 0.25,-8.75 -2.23,-5.23"/>
    </edge>
    <edge id=":J0_22" function="internal">
        <lane id=":J0_22_0" index="0" speed="11.84" length="19.83" shape="-2.23,-5.23 -3.80,-3.00 -10.55,0.45 -20.00,1.60"/>
    </edge>
    <edge id=":J0_18" function="internal">
        <lane id=":J0_18_0" index="0" speed="13.89" length="40.06" shape="-20.00,-4.80 20.00,-4.80"/>
        <lane id=":J0_18_1" index="1" speed="13.89" length="40.06" shape="-20.00,-4.80 20.00,-1.60"/>
    </edge>
    <edge id=":J0_20" function="internal">
        <lane id=":J0_20_0" index="0" speed="11.84" length="32.30" shape="-20.00,-1.60 -10.55,-0.45 -3.80,3.00 0.25,8.75 1.60,16.80"/>
    </edge>

    <edge id="-E0" from="J1" to="J0" priority="-1">
        <lane id="-E0_0" index="0" speed="13.89" length="130.00" shape="150.00,11.20 20.00,11.20"/>
        <lane id="-E0_1" index="1" speed="13.89" length="130.00" shape="150.00,8.00 20.00,8.00"/>
        <lane id="-E0_2" index="2" speed="13.89" length="130.00" shape="150.00,4.80 20.00,4.80"/>
        <lane id="-E0_3" index="3" speed="13.89" length="130.00" shape="150.00,1.60 20.00,1.60"/>
    </edge>
    <edge id="-E1" from="J2" to="J0" priority="-1">
        <lane id="-E1_0" index="0" speed="13.89" length="133.20" shape="14.40,-150.00 14.40,-16.80"/>
        <lane id="-E1_1" index="1" speed="13.89" length="133.20" shape="11.20,-150.00 11.20,-16.80"/>
        <lane id="-E1_2" index="2" speed="13.89" length="133.20" shape="8.00,-150.00 8.00,-16.80"/>
        <lane id="-E1_3" index="3" speed="13.89" length="133.20" shape="4.80,-150.00 4.80,-16.80"/>
        <lane id="-E1_4" index="4" speed="13.89" length="133.20" shape="1.60,-150.00 1.60,-16.80"/>
    </edge>
    <edge id="-E2" from="J3" to="J0" priority="-1">
        <lane id="-E2_0" index="0" speed="13.89" length="130.00" shape="-150.00,-4.80 -20.00,-4.80"/>
        <lane id="-E2_1" index="1" speed="13.89" length="130.00" shape="-150.00,-1.60 -20.00,-1.60"/>
    </edge>
    <edge id="-E3" from="J4" to="J0" priority="-1">
        <lane id="-E3_0" index="0" speed="13.89" length="133.20" shape="-14.40,150.00 -14.40,16.80"/>
        <lane id="-E3_1" index="1" speed="13.89" length="133.20" shape="-11.20,150.00 -11.20,16.80"/>
        <lane id="-E3_2" index="2" speed="13.89" length="133.20" shape="-8.00,150.00 -8.00,16.80"/>
        <lane id="-E3_3" index="3" speed="13.89" length="133.20" shape="-4.80,150.00 -4.80,16.80"/>
        <lane id="-E3_4" index="4" speed="13.89" length="133.20" shape="-1.60,150.00 -1.60,16.80"/>
    </edge>
    <edge id="E0" from="J0" to="J1" priority="-1">
        <lane id="E0_0" index="0" speed="13.89" length="130.00" shape="20.00,-11.20 150.00,-11.20"/>
        <lane id="E0_1" index="1" speed="13.89" length="130.00" shape="20.00,-8.00 150.00,-8.00"/>
        <lane id="E0_2" index="2" speed="13.89" length="130.00" shape="20.00,-4.80 150.00,-4.80"/>
        <lane id="E0_3" index="3" speed="13.89" length="130.00" shape="20.00,-1.60 150.00,-1.60"/>
    </edge>
    <edge id="E1" from="J0" to="J2" priority="-1" length="145.30">
        <lane id="E1_0" index="0" speed="13.89" length="145.30" shape="-11.20,-16.80 -11.20,-150.00"/>
        <lane id="E1_1" index="1" speed="13.89" length="145.30" shape="-8.00,-16.80 -8.00,-150.00"/>
        <lane id="E1_2" index="2" speed="13.89" length="145.30" shape="-4.80,-16.80 -4.80,-150.00"/>
        <lane id="E1_3" index="3" speed="13.89" length="145.30" shape="-1.60,-16.80 -1.60,-150.00"/>
    </edge>
    <edge id="E2" from="J0" to="J3" priority="-1">
        <lane id="E2_0" index="0" speed="13.89" length="130.00" shape="-20.00,4.80 -150.00,4.80"/>
        <lane id="E2_1" index="1" speed="13.89" length="130.00" shape="-20.00,1.60 -150.00,1.60"/>
    </edge>
    <edge id="E3" from="J0" to="J4" priority="-1">
        <lane id="E3_0" index="0" speed="13.89" length="133.20" shape="11.20,16.80 11.20,150.00"/>
        <lane id="E3_1" index="1" speed="13.89" length="133.20" shape="8.00,16.80 8.00,150.00"/>
        <lane id="E3_2" index="2" speed="13.89" length="133.20" shape="4.80,16.80 4.80,150.00"/>
        <lane id="E3_3" index="3" speed="13.89" length="133.20" shape="1.60,16.80 1.60,150.00"/>
    </edge>

    <junction id="J0" type="priority" x="0.00" y="0.00" incLanes="-E3_0 -E3_1 -E3_2 -E3_3 -E3_4 -E0_0 -E0_1 -E0_2 -E0_3 -E1_0 -E1_1 -E1_2 -E1_3 -E1_4 -E2_0 -E2_1" intLanes=":J0_0_0 :J0_1_0 :J0_1_1 :J0_1_2 :J0_21_0 :J0_21_1 :J0_6_0 :J0_6_1 :J0_8_0 :J0_8_1 :J0_10_0 :J0_11_0 :J0_11_1 :J0_11_2 :J0_14_0 :J0_14_1 :J0_14_2 :J0_22_0 :J0_18_0 :J0_18_1 :J0_20_0" shape="-16.00,16.80 12.80,16.80 13.60,14.58 14.60,13.80 16.00,13.24 17.80,12.91 20.00,12.80 20.00,-12.80 17.78,-13.24 17.00,-13.80 16.44,-14.58 16.11,-15.58 16.00,-16.80 -12.80,-16.80 -13.00,-13.62 -13.60,-11.02 -14.60,-9.00 -16.00,-7.56 -17.80,-6.69 -20.00,-6.40 -20.00,6.40 -17.78,7.56 -17.00,9.00 -16.44,11.02 -16.11,13.62">
        <request index="0"  response="000000000000000000000" foes="000000000001100000000" cont="0"/>
        <request index="1"  response="000000000000000000000" foes="111100000001100000000" cont="0"/>
        <request index="2"  response="000000000000000000000" foes="111100000001100000000" cont="0"/>
        <request index="3"  response="000000000000000000000" foes="111100000001100000000" cont="0"/>
        <request index="4"  response="000011111100000000000" foes="111011111111100000000" cont="1"/>
        <request index="5"  response="000011111100000000000" foes="111011111111100000000" cont="1"/>
        <request index="6"  response="000011100000000000000" foes="000011100000000000000" cont="0"/>
        <request index="7"  response="000011100000000000000" foes="000011100000000000000" cont="0"/>
        <request index="8"  response="000111100000000111111" foes="100111100000000111111" cont="0"/>
        <request index="9"  response="000111100000000111111" foes="100111100000000111111" cont="0"/>
        <request index="10" response="011111100000000110000" foes="011111100000000110000" cont="0"/>
        <request index="11" response="000000000000000000000" foes="011000000000000110000" cont="0"/>
        <request index="12" response="000000000000000000000" foes="011000000000000110000" cont="0"/>
        <request index="13" response="000000000000000000000" foes="011000000000000110000" cont="0"/>
        <request index="14" response="000000000000000000000" foes="011000000011111110000" cont="0"/>
        <request index="15" response="000000000000000000000" foes="011000000011111110000" cont="0"/>
        <request index="16" response="000000000000000000000" foes="011000000011111110000" cont="0"/>
        <request index="17" response="000000000000000001110" foes="111000000011100001110" cont="1"/>
        <request index="18" response="000111111100000111110" foes="000111111110000111110" cont="0"/>
        <request index="19" response="000111111100000111110" foes="000111111110000111110" cont="0"/>
        <request index="20" response="000100000001100111110" foes="000100000001100111110" cont="0"/>
    </junction>
    <junction id="J1" type="dead_end" x="150.00" y="0.00" incLanes="E0_0 E0_1 E0_2 E0_3" intLanes="" shape="150.00,0.00 150.00,-12.80 150.00,0.00"/>
    <junction id="J2" type="dead_end" x="0.00" y="-150.00" incLanes="E1_0 E1_1 E1_2 E1_3" intLanes="" shape="0.00,-150.00 -12.80,-150.00 0.00,-150.00"/>
    <junction id="J3" type="dead_end" x="-150.00" y="0.00" incLanes="E2_0 E2_1" intLanes="" shape="-150.00,0.00 -150.00,6.40 -150.00,0.00"/>
    <junction id="J4" type="dead_end" x="0.00" y="150.00" incLanes="E3_0 E3_1 E3_2 E3_3" intLanes="" shape="0.00,150.00 12.80,150.00 0.00,150.00"/>

    <junction id=":J0_21_0" type="internal" x="2.24" y="3.20" incLanes=":J0_4_0 -E1_0 -E1_1 -E1_2 -E1_3" intLanes=":J0_8_0 :J0_8_1 :J0_10_0 :J0_11_0 :J0_11_1 :J0_11_2 :J0_14_0 :J0_14_1 :J0_14_2 :J0_18_0 :J0_18_1 :J0_20_0"/>
    <junction id=":J0_21_1" type="internal" x="2.23" y="5.23" incLanes=":J0_4_1 -E1_0 -E1_1 -E1_2 -E1_3" intLanes=":J0_8_0 :J0_8_1 :J0_10_0 :J0_11_0 :J0_11_1 :J0_11_2 :J0_14_0 :J0_14_1 :J0_14_2 :J0_18_0 :J0_18_1 :J0_20_0"/>
    <junction id=":J0_22_0" type="internal" x="-2.23" y="-5.23" incLanes=":J0_17_0 -E3_0 -E3_1 -E3_2 -E3_3" intLanes=":J0_0_0 :J0_1_0 :J0_1_1 :J0_1_2 :J0_8_0 :J0_8_1 :J0_10_0 :J0_18_0 :J0_18_1 :J0_20_0"/>

    <connection from="-E0" to="E3" fromLane="0" toLane="1" via=":J0_6_0" dir="r" state="m"/>
    <connection from="-E0" to="E3" fromLane="0" toLane="2" via=":J0_6_1" dir="r" state="m"/>
    <connection from="-E0" to="E2" fromLane="1" toLane="0" via=":J0_8_0" dir="s" state="m"/>
    <connection from="-E0" to="E2" fromLane="2" toLane="1" via=":J0_8_1" dir="s" state="m"/>
    <connection from="-E0" to="E1" fromLane="3" toLane="3" via=":J0_10_0" dir="l" state="m"/>
    <connection from="-E1" to="E0" fromLane="0" toLane="1" via=":J0_11_0" dir="r" state="M"/>
    <connection from="-E1" to="E0" fromLane="0" toLane="2" via=":J0_11_1" dir="r" state="M"/>
    <connection from="-E1" to="E0" fromLane="0" toLane="3" via=":J0_11_2" dir="r" state="M"/>
    <connection from="-E1" to="E3" fromLane="1" toLane="0" via=":J0_14_0" dir="s" state="M"/>
    <connection from="-E1" to="E3" fromLane="2" toLane="1" via=":J0_14_1" dir="s" state="M"/>
    <connection from="-E1" to="E3" fromLane="3" toLane="2" via=":J0_14_2" dir="s" state="M"/>
    <connection from="-E1" to="E2" fromLane="4" toLane="1" via=":J0_17_0" dir="l" state="m"/>
    <connection from="-E2" to="E0" fromLane="0" toLane="2" via=":J0_18_0" dir="s" state="m"/>
    <connection from="-E2" to="E0" fromLane="0" toLane="3" via=":J0_18_1" dir="s" state="m"/>
    <connection from="-E2" to="E3" fromLane="1" toLane="3" via=":J0_20_0" dir="l" state="m"/>
    <connection from="-E3" to="E2" fromLane="0" toLane="0" via=":J0_0_0" dir="r" state="M"/>
    <connection from="-E3" to="E1" fromLane="1" toLane="0" via=":J0_1_0" dir="s" state="M"/>
    <connection from="-E3" to="E1" fromLane="2" toLane="1" via=":J0_1_1" dir="s" state="M"/>
    <connection from="-E3" to="E1" fromLane="3" toLane="2" via=":J0_1_2" dir="s" state="M"/>
    <connection from="-E3" to="E0" fromLane="4" toLane="2" via=":J0_4_0" dir="l" state="m"/>
    <connection from="-E3" to="E0" fromLane="4" toLane="3" via=":J0_4_1" dir="l" state="m"/>

    <connection from=":J0_0" to="E2" fromLane="0" toLane="0" dir="r" state="M"/>
    <connection from=":J0_1" to="E1" fromLane="0" toLane="0" dir="s" state="M"/>
    <connection from=":J0_1" to="E1" fromLane="1" toLane="1" dir="s" state="M"/>
    <connection from=":J0_1" to="E1" fromLane="2" toLane="2" dir="s" state="M"/>
    <connection from=":J0_4" to="E0" fromLane="0" toLane="2" via=":J0_21_0" dir="l" state="m"/>
    <connection from=":J0_21" to="E0" fromLane="0" toLane="2" dir="l" state="M"/>
    <connection from=":J0_4" to="E0" fromLane="1" toLane="3" via=":J0_21_1" dir="l" state="m"/>
    <connection from=":J0_21" to="E0" fromLane="1" toLane="3" dir="l" state="M"/>
    <connection from=":J0_6" to="E3" fromLane="0" toLane="1" dir="r" state="M"/>
    <connection from=":J0_6" to="E3" fromLane="1" toLane="2" dir="r" state="M"/>
    <connection from=":J0_8" to="E2" fromLane="0" toLane="0" dir="s" state="M"/>
    <connection from=":J0_8" to="E2" fromLane="1" toLane="1" dir="s" state="M"/>
    <connection from=":J0_10" to="E1" fromLane="0" toLane="3" dir="l" state="M"/>
    <connection from=":J0_11" to="E0" fromLane="0" toLane="1" dir="r" state="M"/>
    <connection from=":J0_11" to="E0" fromLane="1" toLane="2" dir="r" state="M"/>
    <connection from=":J0_11" to="E0" fromLane="2" toLane="3" dir="r" state="M"/>
    <connection from=":J0_14" to="E3" fromLane="0" toLane="0" dir="s" state="M"/>
    <connection from=":J0_14" to="E3" fromLane="1" toLane="1" dir="s" state="M"/>
    <connection from=":J0_14" to="E3" fromLane="2" toLane="2" dir="s" state="M"/>
    <connection from=":J0_17" to="E2" fromLane="0" toLane="1" via=":J0_22_0" dir="l" state="m"/>
    <connection from=":J0_22" to="E2" fromLane="0" toLane="1" dir="l" state="M"/>
    <connection from=":J0_18" to="E0" fromLane="0" toLane="2" dir="s" state="M"/>
    <connection from=":J0_18" to="E0" fromLane="1" toLane="3" dir="s" state="M"/>
    <connection from=":J0_20" to="E3" fromLane="0" toLane="3" dir="l" state="M"/>

</net>
